<?xml version="1.0" encoding="UTF-8"?>

<!-- generated on 2024-10-04 15:32:16 by Eclipse SUMO netedit Version 1.20.0
<configuration xmlns:xsi="http://www.w3.org/2001/XMLSchema-instance" xsi:noNamespaceSchemaLocation="http://sumo.dlr.de/xsd/neteditConfiguration.xsd">

    <input>
        <sumo-net-file value="/home/gossq/git-projects/Special-Issue-MOST-2024/sumo_config/gamma_cross/cross3l.net.xml"/>
    </input>

    <output>
        <output-file value="/home/gossq/git-projects/Special-Issue-MOST-2024/sumo_config/gamma_cross/cross3l.net.xml"/>
    </output>

    <processing>
        <geometry.min-radius.fix.railways value="false"/>
        <geometry.max-grade.fix value="false"/>
        <offset.disable-normalization value="true"/>
        <lefthand value="0"/>
    </processing>

    <junctions>
        <no-turnarounds value="true"/>
        <junctions.corner-detail value="5"/>
        <junctions.limit-turn-speed value="5.50"/>
        <rectangular-lane-cut value="0"/>
    </junctions>

    <pedestrian>
        <walkingareas value="0"/>
    </pedestrian>

</configuration>
-->

<net version="1.20" junctionCornerDetail="5" limitTurnSpeed="5.50" xmlns:xsi="http://www.w3.org/2001/XMLSchema-instance" xsi:noNamespaceSchemaLocation="http://sumo.dlr.de/xsd/net_file.xsd">

    <location netOffset="500.00,500.00" convBoundary="0.00,0.00,1000.00,1016.54" origBoundary="-500.00,-500.00,500.00,500.00" projParameter="!"/>

    <edge id=":0_0" function="internal">
        <lane id=":0_0_0" index="0" speed="8.10" length="14.57" shape="492.00,513.60 491.65,508.35 490.60,504.60 488.85,502.35 486.40,501.60"/>
    </edge>
    <edge id=":0_1" function="internal">
        <lane id=":0_1_0" index="0" speed="13.89" length="27.42" shape="495.20,513.60 495.70,504.28 496.80,496.74 497.90,490.83 498.40,486.40"/>
    </edge>
    <edge id=":0_2" function="internal">
        <lane id=":0_2_0" index="0" speed="10.36" length="8.26" shape="498.40,513.60 499.35,506.95 500.15,505.62"/>
    </edge>
    <edge id=":0_12" function="internal">
        <lane id=":0_12_0" index="0" speed="10.36" length="16.25" shape="500.15,505.62 502.20,502.20 506.95,499.35 513.60,498.40"/>
    </edge>
    <edge id=":0_3" function="internal">
        <lane id=":0_3_0" index="0" speed="8.10" length="14.57" shape="513.60,508.00 508.35,508.35 504.60,509.40 502.35,511.15 501.60,513.60"/>
    </edge>
    <edge id=":0_4" function="internal">
        <lane id=":0_4_0" index="0" speed="13.89" length="27.42" shape="513.60,504.80 504.28,504.30 496.74,503.20 490.83,502.10 486.40,501.60"/>
    </edge>
    <edge id=":0_5" function="internal">
        <lane id=":0_5_0" index="0" speed="10.36" length="8.26" shape="513.60,501.60 506.95,500.65 505.62,499.85"/>
    </edge>
    <edge id=":0_13" function="internal">
        <lane id=":0_13_0" index="0" speed="10.36" length="16.25" shape="505.62,499.85 502.20,497.80 499.35,493.05 498.40,486.40"/>
    </edge>
    <edge id=":0_6" function="internal">
        <lane id=":0_6_0" index="0" speed="8.10" length="14.57" shape="508.00,486.40 508.35,491.65 509.40,495.40 511.15,497.65 513.60,498.40"/>
    </edge>
    <edge id=":0_7" function="internal">
        <lane id=":0_7_0" index="0" speed="13.89" length="27.42" shape="504.80,486.40 504.30,495.72 503.20,503.26 502.10,509.17 501.60,513.60"/>
    </edge>
    <edge id=":0_8" function="internal">
        <lane id=":0_8_0" index="0" speed="10.36" length="8.26" shape="501.60,486.40 500.65,493.05 499.85,494.38"/>
    </edge>
    <edge id=":0_14" function="internal">
        <lane id=":0_14_0" index="0" speed="10.36" length="16.25" shape="499.85,494.38 497.80,497.80 493.05,500.65 486.40,501.60"/>
    </edge>
    <edge id=":0_9" function="internal">
        <lane id=":0_9_0" index="0" speed="8.10" length="14.57" shape="486.40,492.00 491.65,491.65 495.40,490.60 497.65,488.85 498.40,486.40"/>
    </edge>
    <edge id=":0_10" function="internal">
        <lane id=":0_10_0" index="0" speed="13.89" length="27.42" shape="486.40,495.20 495.72,495.70 503.26,496.80 509.17,497.90 513.60,498.40"/>
    </edge>
    <edge id=":0_11" function="internal">
        <lane id=":0_11_0" index="0" speed="10.36" length="8.26" shape="486.40,498.40 493.05,499.35 494.38,500.15"/>
    </edge>
    <edge id=":0_15" function="internal">
        <lane id=":0_15_0" index="0" speed="10.36" length="16.25" shape="494.38,500.15 497.80,502.20 500.65,506.95 501.60,513.60"/>
    </edge>
    <edge id=":1_0" function="internal">
        <lane id=":1_0_0" index="0" speed="3.65" length="4.67" shape="0.00,501.60 -1.20,500.80 -1.60,500.00 -1.20,499.20 0.00,498.40"/>
    </edge>
    <edge id=":2_0" function="internal">
        <lane id=":2_0_0" index="0" speed="3.65" length="4.67" shape="1000.00,498.40 1001.20,499.20 1001.60,500.00 1001.20,500.80 1000.00,501.60"/>
    </edge>
    <edge id=":3_0" function="internal">
        <lane id=":3_0_0" index="0" speed="3.65" length="4.67" shape="498.40,0.00 499.20,-1.20 500.00,-1.60 500.80,-1.20 501.60,0.00"/>
    </edge>
    <edge id=":4_0" function="internal">
        <lane id=":4_0_0" index="0" speed="13.89" length="9.18" shape="498.54,1003.97 497.44,1001.34 495.20,1000.06 493.00,998.76 492.00,996.06"/>
        <lane id=":4_0_1" index="1" speed="13.89" length="9.18" shape="498.54,1003.97 497.95,1001.52 496.81,1000.01 495.70,998.50 495.20,996.06"/>
        <lane id=":4_0_2" index="2" speed="13.89" length="9.18" shape="498.54,1003.97 498.40,996.06"/>
    </edge>
    <edge id=":4_3" function="internal">
        <lane id=":4_3_0" index="0" speed="3.65" length="1.44" shape="501.60,996.06 500.80,997.26"/>
    </edge>
    <edge id=":4_4" function="internal">
        <lane id=":4_4_0" index="0" speed="3.65" length="3.23" shape="500.80,997.26 500.00,997.66 499.20,997.26 498.40,996.06"/>
    </edge>
    <edge id=":J1_0" function="internal">
        <lane id=":J1_0_0" index="0" speed="26.95" length="7.91" shape="421.38,1014.83 429.30,1014.84"/>
    </edge>
    <edge id=":m1_0" function="internal">
        <lane id=":m1_0_0" index="0" speed="13.89" length="0.10" shape="286.40,492.00 286.40,492.00"/>
        <lane id=":m1_0_1" index="1" speed="13.89" length="0.10" shape="286.40,495.20 286.40,495.20"/>
        <lane id=":m1_0_2" index="2" speed="13.89" length="0.10" shape="286.40,498.40 286.40,498.40"/>
    </edge>
    <edge id=":m2_0" function="internal">
        <lane id=":m2_0_0" index="0" speed="13.89" length="0.10" shape="713.60,508.00 713.60,508.00"/>
        <lane id=":m2_0_1" index="1" speed="13.89" length="0.10" shape="713.60,504.80 713.60,504.80"/>
        <lane id=":m2_0_2" index="2" speed="13.89" length="0.10" shape="713.60,501.60 713.60,501.60"/>
    </edge>
    <edge id=":m3_0" function="internal">
        <lane id=":m3_0_0" index="0" speed="13.89" length="0.10" shape="508.00,286.40 508.00,286.40"/>
        <lane id=":m3_0_1" index="1" speed="13.89" length="0.10" shape="504.80,286.40 504.80,286.40"/>
        <lane id=":m3_0_2" index="2" speed="13.89" length="0.10" shape="501.60,286.40 501.60,286.40"/>
    </edge>
    <edge id=":m4_0" function="internal">
        <lane id=":m4_0_0" index="0" speed="13.89" length="0.10" shape="492.00,713.60 492.00,713.60"/>
        <lane id=":m4_0_1" index="1" speed="13.89" length="0.10" shape="495.20,713.60 495.20,713.60"/>
        <lane id=":m4_0_2" index="2" speed="13.89" length="0.10" shape="498.40,713.60 498.40,713.60"/>
    </edge>

    <edge id="1fi" from="1" to="m1" priority="2">
        <lane id="1fi_0" index="0" speed="13.89" length="286.40" shape="0.00,492.00 286.40,492.00"/>
        <lane id="1fi_1" index="1" speed="13.89" length="286.40" shape="0.00,495.20 286.40,495.20"/>
        <lane id="1fi_2" index="2" speed="13.89" length="286.40" shape="0.00,498.40 286.40,498.40"/>
    </edge>
    <edge id="1o" from="0" to="1" priority="1">
        <lane id="1o_0" index="0" speed="13.89" length="486.40" shape="486.40,501.60 0.00,501.60"/>
    </edge>
    <edge id="1si" from="m1" to="0" priority="3">
        <lane id="1si_0" index="0" speed="13.89" length="200.00" shape="286.40,492.00 486.40,492.00"/>
        <lane id="1si_1" index="1" speed="13.89" length="200.00" shape="286.40,495.20 486.40,495.20"/>
        <lane id="1si_2" index="2" speed="13.89" length="200.00" shape="286.40,498.40 486.40,498.40"/>
    </edge>
    <edge id="2fi" from="2" to="m2" priority="2">
        <lane id="2fi_0" index="0" speed="13.89" length="286.40" shape="1000.00,508.00 713.60,508.00"/>
        <lane id="2fi_1" index="1" speed="13.89" length="286.40" shape="1000.00,504.80 713.60,504.80"/>
        <lane id="2fi_2" index="2" speed="13.89" length="286.40" shape="1000.00,501.60 713.60,501.60"/>
    </edge>
    <edge id="2o" from="0" to="2" priority="1">
        <lane id="2o_0" index="0" speed="13.89" length="486.40" shape="513.60,498.40 1000.00,498.40"/>
    </edge>
    <edge id="2si" from="m2" to="0" priority="3">
        <lane id="2si_0" index="0" speed="13.89" length="200.00" shape="713.60,508.00 513.60,508.00"/>
        <lane id="2si_1" index="1" speed="13.89" length="200.00" shape="713.60,504.80 513.60,504.80"/>
        <lane id="2si_2" index="2" speed="13.89" length="200.00" shape="713.60,501.60 513.60,501.60"/>
    </edge>
    <edge id="3fi" from="3" to="m3" priority="2">
        <lane id="3fi_0" index="0" speed="13.89" length="286.40" shape="508.00,0.00 508.00,286.40"/>
        <lane id="3fi_1" index="1" speed="13.89" length="286.40" shape="504.80,0.00 504.80,286.40"/>
        <lane id="3fi_2" index="2" speed="13.89" length="286.40" shape="501.60,0.00 501.60,286.40"/>
    </edge>
    <edge id="3o" from="0" to="3" priority="1">
        <lane id="3o_0" index="0" speed="13.89" length="486.40" shape="498.40,486.40 498.40,0.00"/>
    </edge>
    <edge id="3si" from="m3" to="0" priority="3">
        <lane id="3si_0" index="0" speed="13.89" length="200.00" shape="508.00,286.40 508.00,486.40"/>
        <lane id="3si_1" index="1" speed="13.89" length="200.00" shape="504.80,286.40 504.80,486.40"/>
        <lane id="3si_2" index="2" speed="13.89" length="200.00" shape="501.60,286.40 501.60,486.40"/>
    </edge>
    <edge id="4fi" from="4" to="m4" priority="2">
        <lane id="4fi_0" index="0" speed="13.89" length="282.46" shape="492.00,996.06 492.00,713.60"/>
        <lane id="4fi_1" index="1" speed="13.89" length="282.46" shape="495.20,996.06 495.20,713.60"/>
        <lane id="4fi_2" index="2" speed="13.89" length="282.46" shape="498.40,996.06 498.40,713.60"/>
    </edge>
    <edge id="4o" from="0" to="4" priority="1">
        <lane id="4o_0" index="0" speed="13.89" length="482.46" shape="501.60,513.60 501.60,996.06"/>
    </edge>
    <edge id="4si" from="m4" to="0" priority="3">
        <lane id="4si_0" index="0" speed="13.89" length="200.00" shape="492.00,713.60 492.00,513.60"/>
        <lane id="4si_1" index="1" speed="13.89" length="200.00" shape="495.20,713.60 495.20,513.60"/>
        <lane id="4si_2" index="2" speed="13.89" length="200.00" shape="498.40,713.60 498.40,513.60"/>
    </edge>
    <edge id="connector" from="J1" to="4" priority="-1" shape="425.38,1016.43 500.59,1016.54 500.00,1000.00">
        <lane id="connector_0" index="0" speed="13.89" length="80.61" shape="429.30,1014.84 498.93,1014.94 498.54,1003.97"/>
    </edge>
    <edge id="warmup" from="J0" to="J1" priority="-1">
        <lane id="warmup_0" index="0" speed="40.00" length="355.36" shape="65.96,822.94 421.32,822.83"/>
        <lane id="warmup_1" index="1" speed="40.00" length="355.36" shape="65.96,826.14 421.32,826.03"/>
        <lane id="warmup_2" index="2" speed="40.00" length="355.36" shape="65.96,829.34 421.32,829.23"/>
        <lane id="warmup_3" index="3" speed="40.00" length="355.36" shape="65.96,832.54 421.33,832.43"/>
        <lane id="warmup_4" index="4" speed="40.00" length="355.36" shape="65.96,835.74 421.33,835.63"/>
        <lane id="warmup_5" index="5" speed="40.00" length="355.36" shape="65.97,838.94 421.33,838.83"/>
        <lane id="warmup_6" index="6" speed="40.00" length="355.36" shape="65.97,842.14 421.33,842.03"/>
        <lane id="warmup_7" index="7" speed="40.00" length="355.36" shape="65.97,845.34 421.33,845.23"/>
        <lane id="warmup_8" index="8" speed="40.00" length="355.36" shape="65.97,848.54 421.33,848.43"/>
        <lane id="warmup_9" index="9" speed="40.00" length="355.36" shape="65.97,851.74 421.33,851.63"/>
        <lane id="warmup_10" index="10" speed="40.00" length="355.36" shape="65.97,854.94 421.33,854.83"/>
        <lane id="warmup_11" index="11" speed="40.00" length="355.36" shape="65.97,858.14 421.33,858.03"/>
        <lane id="warmup_12" index="12" speed="40.00" length="355.36" shape="65.97,861.34 421.33,861.23"/>
        <lane id="warmup_13" index="13" speed="40.00" length="355.36" shape="65.97,864.54 421.33,864.43"/>
        <lane id="warmup_14" index="14" speed="40.00" length="355.36" shape="65.97,867.74 421.34,867.63"/>
        <lane id="warmup_15" index="15" speed="40.00" length="355.36" shape="65.98,870.94 421.34,870.83"/>
        <lane id="warmup_16" index="16" speed="40.00" length="355.36" shape="65.98,874.14 421.34,874.03"/>
        <lane id="warmup_17" index="17" speed="40.00" length="355.36" shape="65.98,877.34 421.34,877.23"/>
        <lane id="warmup_18" index="18" speed="40.00" length="355.36" shape="65.98,880.54 421.34,880.43"/>
        <lane id="warmup_19" index="19" speed="40.00" length="355.36" shape="65.98,883.74 421.34,883.63"/>
        <lane id="warmup_20" index="20" speed="40.00" length="355.36" shape="65.98,886.94 421.34,886.83"/>
        <lane id="warmup_21" index="21" speed="40.00" length="355.36" shape="65.98,890.14 421.34,890.03"/>
        <lane id="warmup_22" index="22" speed="40.00" length="355.36" shape="65.98,893.34 421.34,893.23"/>
        <lane id="warmup_23" index="23" speed="40.00" length="355.36" shape="65.98,896.54 421.34,896.43"/>
        <lane id="warmup_24" index="24" speed="40.00" length="355.36" shape="65.98,899.74 421.35,899.63"/>
        <lane id="warmup_25" index="25" speed="40.00" length="355.36" shape="65.99,902.94 421.35,902.83"/>
        <lane id="warmup_26" index="26" speed="40.00" length="355.36" shape="65.99,906.14 421.35,906.03"/>
        <lane id="warmup_27" index="27" speed="40.00" length="355.36" shape="65.99,909.34 421.35,909.23"/>
        <lane id="warmup_28" index="28" speed="40.00" length="355.36" shape="65.99,912.54 421.35,912.43"/>
        <lane id="warmup_29" index="29" speed="40.00" length="355.36" shape="65.99,915.74 421.35,915.63"/>
        <lane id="warmup_30" index="30" speed="40.00" length="355.36" shape="65.99,918.94 421.35,918.83"/>
        <lane id="warmup_31" index="31" speed="40.00" length="355.36" shape="65.99,922.14 421.35,922.03"/>
        <lane id="warmup_32" index="32" speed="40.00" length="355.36" shape="65.99,925.34 421.35,925.23"/>
        <lane id="warmup_33" index="33" speed="40.00" length="355.36" shape="65.99,928.54 421.35,928.43"/>
        <lane id="warmup_34" index="34" speed="40.00" length="355.36" shape="65.99,931.74 421.36,931.63"/>
        <lane id="warmup_35" index="35" speed="40.00" length="355.36" shape="66.00,934.94 421.36,934.83"/>
        <lane id="warmup_36" index="36" speed="40.00" length="355.36" shape="66.00,938.14 421.36,938.03"/>
        <lane id="warmup_37" index="37" speed="40.00" length="355.36" shape="66.00,941.34 421.36,941.23"/>
        <lane id="warmup_38" index="38" speed="40.00" length="355.36" shape="66.00,944.54 421.36,944.43"/>
        <lane id="warmup_39" index="39" speed="40.00" length="355.36" shape="66.00,947.74 421.36,947.63"/>
        <lane id="warmup_40" index="40" speed="40.00" length="355.36" shape="66.00,950.94 421.36,950.83"/>
        <lane id="warmup_41" index="41" speed="40.00" length="355.36" shape="66.00,954.14 421.36,954.03"/>
        <lane id="warmup_42" index="42" speed="40.00" length="355.36" shape="66.00,957.34 421.36,957.23"/>
        <lane id="warmup_43" index="43" speed="40.00" length="355.36" shape="66.00,960.54 421.36,960.43"/>
        <lane id="warmup_44" index="44" speed="40.00" length="355.36" shape="66.00,963.74 421.37,963.63"/>
        <lane id="warmup_45" index="45" speed="40.00" length="355.36" shape="66.00,966.94 421.37,966.83"/>
        <lane id="warmup_46" index="46" speed="40.00" length="355.36" shape="66.01,970.14 421.37,970.03"/>
        <lane id="warmup_47" index="47" speed="40.00" length="355.36" shape="66.01,973.34 421.37,973.23"/>
        <lane id="warmup_48" index="48" speed="40.00" length="355.36" shape="66.01,976.54 421.37,976.43"/>
        <lane id="warmup_49" index="49" speed="40.00" length="355.36" shape="66.01,979.74 421.37,979.63"/>
        <lane id="warmup_50" index="50" speed="40.00" length="355.36" shape="66.01,982.94 421.37,982.83"/>
        <lane id="warmup_51" index="51" speed="40.00" length="355.36" shape="66.01,986.14 421.37,986.03"/>
        <lane id="warmup_52" index="52" speed="40.00" length="355.36" shape="66.01,989.34 421.37,989.23"/>
        <lane id="warmup_53" index="53" speed="40.00" length="355.36" shape="66.01,992.54 421.37,992.43"/>
        <lane id="warmup_54" index="54" speed="40.00" length="355.36" shape="66.01,995.74 421.38,995.63"/>
        <lane id="warmup_55" index="55" speed="40.00" length="355.36" shape="66.01,998.94 421.38,998.83"/>
        <lane id="warmup_56" index="56" speed="40.00" length="355.36" shape="66.02,1002.14 421.38,1002.03"/>
        <lane id="warmup_57" index="57" speed="40.00" length="355.36" shape="66.02,1005.34 421.38,1005.23"/>
        <lane id="warmup_58" index="58" speed="40.00" length="355.36" shape="66.02,1008.54 421.38,1008.43"/>
        <lane id="warmup_59" index="59" speed="40.00" length="355.36" shape="66.02,1011.74 421.38,1011.63"/>
        <lane id="warmup_60" index="60" speed="40.00" length="355.36" shape="66.02,1014.94 421.38,1014.83"/>
    </edge>

    <tlLogic id="0" type="static" programID="0" offset="0">
        <phase duration="33" state="GGgrrrGGgrrr"/>
        <phase duration="3"  state="yygrrryygrrr"/>
        <phase duration="6"  state="rrGrrrrrGrrr"/>
        <phase duration="3"  state="rryrrrrryrrr"/>
        <phase duration="33" state="rrrGGgrrrGGg"/>
        <phase duration="3"  state="rrryygrrryyg"/>
        <phase duration="6"  state="rrrrrGrrrrrG"/>
        <phase duration="3"  state="rrrrryrrrrry"/>
    </tlLogic>

    <junction id="0" type="traffic_light" x="500.00" y="500.00" incLanes="4si_0 4si_1 4si_2 2si_0 2si_1 2si_2 3si_0 3si_1 3si_2 1si_0 1si_1 1si_2" intLanes=":0_0_0 :0_1_0 :0_12_0 :0_3_0 :0_4_0 :0_13_0 :0_6_0 :0_7_0 :0_14_0 :0_9_0 :0_10_0 :0_15_0" shape="490.40,513.60 503.20,513.60 504.36,511.38 505.80,510.60 507.82,510.04 510.42,509.71 513.60,509.60 513.60,496.80 511.38,495.64 510.60,494.20 510.04,492.18 509.71,489.58 509.60,486.40 496.80,486.40 495.64,488.62 494.20,489.40 492.18,489.96 489.58,490.29 486.40,490.40 486.40,503.20 488.62,504.36 489.40,505.80 489.96,507.82 490.29,510.42">
        <request index="0"  response="000000000000" foes="000100010000" cont="0"/>
        <request index="1"  response="100000100000" foes="111100110000" cont="0"/>
        <request index="2"  response="100011100000" foes="110011110000" cont="1"/>
        <request index="3"  response="000010000000" foes="100010000000" cont="0"/>
        <request index="4"  response="000110000111" foes="100110000111" cont="0"/>
        <request index="5"  response="011110000110" foes="011110000110" cont="1"/>
        <request index="6"  response="000000000000" foes="010000000100" cont="0"/>
        <request index="7"  response="100000100000" foes="110000111100" cont="0"/>
        <request index="8"  response="100000100011" foes="110000110011" cont="1"/>
        <request index="9"  response="000000000010" foes="000000100010" cont="0"/>
        <request index="10" response="000111000110" foes="000111100110" cont="0"/>
        <request index="11" response="000110011110" foes="000110011110" cont="1"/>
    </junction>
    <junction id="1" type="priority" x="0.00" y="500.00" incLanes="1o_0" intLanes=":1_0_0" shape="0.00,500.00 0.00,503.20 0.00,500.00">
        <request index="0" response="0" foes="0" cont="0"/>
    </junction>
    <junction id="2" type="priority" x="1000.00" y="500.00" incLanes="2o_0" intLanes=":2_0_0" shape="1000.00,500.00 1000.00,496.80 1000.00,500.00">
        <request index="0" response="0" foes="0" cont="0"/>
    </junction>
    <junction id="3" type="priority" x="500.00" y="0.00" incLanes="3o_0" intLanes=":3_0_0" shape="500.00,0.00 496.80,0.00 500.00,0.00">
        <request index="0" response="0" foes="0" cont="0"/>
    </junction>
    <junction id="4" type="priority" x="500.00" y="1000.00" incLanes="connector_0 4o_0" intLanes=":4_0_0 :4_0_1 :4_0_2 :4_4_0" shape="496.94,1004.02 500.14,1003.91 500.87,1000.94 501.61,999.99 502.37,999.03 502.96,997.81 503.20,996.06 490.40,996.06 490.87,998.08 492.06,999.27 493.60,1000.04 495.16,1000.81 496.39,1002.00">
        <request index="0" response="0000" foes="1000" cont="0"/>
        <request index="1" response="0000" foes="1000" cont="0"/>
        <request index="2" response="0000" foes="1000" cont="0"/>
        <request index="3" response="0111" foes="0111" cont="1"/>
    </junction>
    <junction id="J0" type="dead_end" x="66.02" y="1016.54" incLanes="" intLanes="" shape="66.02,1016.54 65.96,821.34"/>
    <junction id="J1" type="priority" x="425.38" y="1016.43" incLanes="warmup_0 warmup_1 warmup_2 warmup_3 warmup_4 warmup_5 warmup_6 warmup_7 warmup_8 warmup_9 warmup_10 warmup_11 warmup_12 warmup_13 warmup_14 warmup_15 warmup_16 warmup_17 warmup_18 warmup_19 warmup_20 warmup_21 warmup_22 warmup_23 warmup_24 warmup_25 warmup_26 warmup_27 warmup_28 warmup_29 warmup_30 warmup_31 warmup_32 warmup_33 warmup_34 warmup_35 warmup_36 warmup_37 warmup_38 warmup_39 warmup_40 warmup_41 warmup_42 warmup_43 warmup_44 warmup_45 warmup_46 warmup_47 warmup_48 warmup_49 warmup_50 warmup_51 warmup_52 warmup_53 warmup_54 warmup_55 warmup_56 warmup_57 warmup_58 warmup_59 warmup_60" intLanes=":J1_0_0" shape="429.29,1016.44 429.30,1013.24 421.76,999.00 421.67,963.44 428.95,871.00 428.86,835.45 421.32,821.23 421.38,1016.43">
        <request index="0" response="0" foes="0" cont="0"/>
    </junction>
    <junction id="m1" type="priority" x="286.40" y="500.00" incLanes="1fi_0 1fi_1 1fi_2" intLanes=":m1_0_0 :m1_0_1 :m1_0_2" shape="286.40,500.00 286.40,490.40 286.40,500.00">
        <request index="0" response="000" foes="000" cont="0"/>
        <request index="1" response="000" foes="000" cont="0"/>
        <request index="2" response="000" foes="000" cont="0"/>
    </junction>
    <junction id="m2" type="priority" x="713.60" y="500.00" incLanes="2fi_0 2fi_1 2fi_2" intLanes=":m2_0_0 :m2_0_1 :m2_0_2" shape="713.60,509.60 713.60,500.00 713.60,509.60">
        <request index="0" response="000" foes="000" cont="0"/>
        <request index="1" response="000" foes="000" cont="0"/>
        <request index="2" response="000" foes="000" cont="0"/>
    </junction>
    <junction id="m3" type="priority" x="500.00" y="286.40" incLanes="3fi_0 3fi_1 3fi_2" intLanes=":m3_0_0 :m3_0_1 :m3_0_2" shape="500.00,286.40 509.60,286.40 500.00,286.40">
        <request index="0" response="000" foes="000" cont="0"/>
        <request index="1" response="000" foes="000" cont="0"/>
        <request index="2" response="000" foes="000" cont="0"/>
    </junction>
    <junction id="m4" type="priority" x="500.00" y="713.60" incLanes="4fi_0 4fi_1 4fi_2" intLanes=":m4_0_0 :m4_0_1 :m4_0_2" shape="490.40,713.60 500.00,713.60 490.40,713.60">
        <request index="0" response="000" foes="000" cont="0"/>
        <request index="1" response="000" foes="000" cont="0"/>
        <request index="2" response="000" foes="000" cont="0"/>
    </junction>

    <junction id=":0_12_0" type="internal" x="500.15" y="505.62" incLanes=":0_2_0 3si_0 3si_1" intLanes=":0_4_0 :0_5_0 :0_6_0 :0_7_0 :0_10_0 :0_11_0"/>
    <junction id=":0_13_0" type="internal" x="505.62" y="499.85" incLanes=":0_5_0 1si_0 1si_1" intLanes=":0_1_0 :0_2_0 :0_7_0 :0_8_0 :0_9_0 :0_10_0"/>
    <junction id=":0_14_0" type="internal" x="499.85" y="494.38" incLanes=":0_8_0 4si_0 4si_1" intLanes=":0_0_0 :0_1_0 :0_4_0 :0_5_0 :0_10_0 :0_11_0"/>
    <junction id=":0_15_0" type="internal" x="494.38" y="500.15" incLanes=":0_11_0 2si_0 2si_1" intLanes=":0_1_0 :0_2_0 :0_3_0 :0_4_0 :0_7_0 :0_8_0"/>
    <junction id=":4_4_0" type="internal" x="500.80" y="997.26" incLanes=":4_3_0 connector_0" intLanes=":4_0_0 :4_0_1 :4_0_2"/>

    <connection from="1fi" to="1si" fromLane="0" toLane="0" via=":m1_0_0" dir="s" state="M"/>
    <connection from="1fi" to="1si" fromLane="1" toLane="1" via=":m1_0_1" dir="s" state="M"/>
    <connection from="1fi" to="1si" fromLane="2" toLane="2" via=":m1_0_2" dir="s" state="M"/>
    <connection from="1o" to="1fi" fromLane="0" toLane="2" via=":1_0_0" dir="t" state="M"/>
    <connection from="1si" to="3o" fromLane="0" toLane="0" via=":0_9_0" tl="0" linkIndex="9" dir="r" state="o"/>
    <connection from="1si" to="2o" fromLane="1" toLane="0" via=":0_10_0" tl="0" linkIndex="10" dir="s" state="o"/>
    <connection from="1si" to="4o" fromLane="2" toLane="0" via=":0_11_0" tl="0" linkIndex="11" dir="l" state="o"/>
    <connection from="2fi" to="2si" fromLane="0" toLane="0" via=":m2_0_0" dir="s" state="M"/>
    <connection from="2fi" to="2si" fromLane="1" toLane="1" via=":m2_0_1" dir="s" state="M"/>
    <connection from="2fi" to="2si" fromLane="2" toLane="2" via=":m2_0_2" dir="s" state="M"/>
    <connection from="2o" to="2fi" fromLane="0" toLane="2" via=":2_0_0" dir="t" state="M"/>
    <connection from="2si" to="4o" fromLane="0" toLane="0" via=":0_3_0" tl="0" linkIndex="3" dir="r" state="o"/>
    <connection from="2si" to="1o" fromLane="1" toLane="0" via=":0_4_0" tl="0" linkIndex="4" dir="s" state="o"/>
    <connection from="2si" to="3o" fromLane="2" toLane="0" via=":0_5_0" tl="0" linkIndex="5" dir="l" state="o"/>
    <connection from="3fi" to="3si" fromLane="0" toLane="0" via=":m3_0_0" dir="s" state="M"/>
    <connection from="3fi" to="3si" fromLane="1" toLane="1" via=":m3_0_1" dir="s" state="M"/>
    <connection from="3fi" to="3si" fromLane="2" toLane="2" via=":m3_0_2" dir="s" state="M"/>
    <connection from="3o" to="3fi" fromLane="0" toLane="2" via=":3_0_0" dir="t" state="M"/>
    <connection from="3si" to="2o" fromLane="0" toLane="0" via=":0_6_0" tl="0" linkIndex="6" dir="r" state="O"/>
    <connection from="3si" to="4o" fromLane="1" toLane="0" via=":0_7_0" tl="0" linkIndex="7" dir="s" state="O"/>
    <connection from="3si" to="1o" fromLane="2" toLane="0" via=":0_8_0" tl="0" linkIndex="8" dir="l" state="o"/>
    <connection from="4fi" to="4si" fromLane="0" toLane="0" via=":m4_0_0" dir="s" state="M"/>
    <connection from="4fi" to="4si" fromLane="1" toLane="1" via=":m4_0_1" dir="s" state="M"/>
    <connection from="4fi" to="4si" fromLane="2" toLane="2" via=":m4_0_2" dir="s" state="M"/>
    <connection from="4o" to="4fi" fromLane="0" toLane="2" via=":4_3_0" dir="t" state="m"/>
    <connection from="4si" to="1o" fromLane="0" toLane="0" via=":0_0_0" tl="0" linkIndex="0" dir="r" state="O"/>
    <connection from="4si" to="3o" fromLane="1" toLane="0" via=":0_1_0" tl="0" linkIndex="1" dir="s" state="O"/>
    <connection from="4si" to="2o" fromLane="2" toLane="0" via=":0_2_0" tl="0" linkIndex="2" dir="l" state="o"/>
    <connection from="connector" to="4fi" fromLane="0" toLane="0" via=":4_0_0" dir="s" state="M"/>
    <connection from="connector" to="4fi" fromLane="0" toLane="1" via=":4_0_1" dir="s" state="M"/>
    <connection from="connector" to="4fi" fromLane="0" toLane="2" via=":4_0_2" dir="s" state="M"/>
    <connection from="warmup" to="connector" fromLane="60" toLane="0" via=":J1_0_0" dir="s" state="M"/>

    <connection from=":0_0" to="1o" fromLane="0" toLane="0" dir="r" state="M"/>
    <connection from=":0_1" to="3o" fromLane="0" toLane="0" dir="s" state="M"/>
    <connection from=":0_2" to="2o" fromLane="0" toLane="0" via=":0_12_0" dir="l" state="m"/>
    <connection from=":0_12" to="2o" fromLane="0" toLane="0" dir="l" state="M"/>
    <connection from=":0_3" to="4o" fromLane="0" toLane="0" dir="r" state="M"/>
    <connection from=":0_4" to="1o" fromLane="0" toLane="0" dir="s" state="M"/>
    <connection from=":0_5" to="3o" fromLane="0" toLane="0" via=":0_13_0" dir="l" state="m"/>
    <connection from=":0_13" to="3o" fromLane="0" toLane="0" dir="l" state="M"/>
    <connection from=":0_6" to="2o" fromLane="0" toLane="0" dir="r" state="M"/>
    <connection from=":0_7" to="4o" fromLane="0" toLane="0" dir="s" state="M"/>
    <connection from=":0_8" to="1o" fromLane="0" toLane="0" via=":0_14_0" dir="l" state="m"/>
    <connection from=":0_14" to="1o" fromLane="0" toLane="0" dir="l" state="M"/>
    <connection from=":0_9" to="3o" fromLane="0" toLane="0" dir="r" state="M"/>
    <connection from=":0_10" to="2o" fromLane="0" toLane="0" dir="s" state="M"/>
    <connection from=":0_11" to="4o" fromLane="0" toLane="0" via=":0_15_0" dir="l" state="m"/>
    <connection from=":0_15" to="4o" fromLane="0" toLane="0" dir="l" state="M"/>
    <connection from=":1_0" to="1fi" fromLane="0" toLane="2" dir="t" state="M"/>
    <connection from=":2_0" to="2fi" fromLane="0" toLane="2" dir="t" state="M"/>
    <connection from=":3_0" to="3fi" fromLane="0" toLane="2" dir="t" state="M"/>
    <connection from=":4_0" to="4fi" fromLane="0" toLane="0" dir="s" state="M"/>
    <connection from=":4_0" to="4fi" fromLane="1" toLane="1" dir="s" state="M"/>
    <connection from=":4_0" to="4fi" fromLane="2" toLane="2" dir="s" state="M"/>
    <connection from=":4_3" to="4fi" fromLane="0" toLane="2" via=":4_4_0" dir="t" state="m"/>
    <connection from=":4_4" to="4fi" fromLane="0" toLane="2" dir="t" state="M"/>
    <connection from=":J1_0" to="connector" fromLane="0" toLane="0" dir="s" state="M"/>
    <connection from=":m1_0" to="1si" fromLane="0" toLane="0" dir="s" state="M"/>
    <connection from=":m1_0" to="1si" fromLane="1" toLane="1" dir="s" state="M"/>